optran: no such command available in ngspice

Compatibility modes selected: hs a

Warning: m=xx on .subckt line will override multiplier m hierarchy!

Warning: redefinition of .subckt sky130_fd_pr__res_generic_po, ignored
Warning: redefinition of .subckt sky130_fd_pr__res_generic_nd, ignored
Warning: redefinition of .subckt sky130_fd_pr__res_generic_pd, ignored
Warning: redefinition of .subckt sky130_fd_pr__pnp_05v5_w0p68l0p68, ignored
Warning: redefinition of .subckt sky130_fd_pr__model__parasitic__res_po, ignored
Warning: redefinition of .subckt sky130_fd_pr__res_xhigh_po, ignored
Warning: redefinition of .subckt sky130_fd_pr__res_high_po, ignored
Warning: redefinition of .subckt sky130_fd_pr__res_xhigh_po_0p35, ignored
Warning: redefinition of .subckt sky130_fd_pr__res_xhigh_po_0p69, ignored
Warning: redefinition of .subckt sky130_fd_pr__res_xhigh_po_1p41, ignored
Warning: redefinition of .subckt sky130_fd_pr__res_xhigh_po_2p85, ignored
Warning: redefinition of .subckt sky130_fd_pr__res_xhigh_po_5p73, ignored
Warning: redefinition of .subckt sky130_fd_pr__res_xhigh_po__base, ignored
Warning: redefinition of .subckt sky130_fd_pr__res_high_po_0p35, ignored
Warning: redefinition of .subckt sky130_fd_pr__res_high_po_0p69, ignored
Warning: redefinition of .subckt sky130_fd_pr__res_high_po_1p41, ignored
Warning: redefinition of .subckt sky130_fd_pr__res_high_po_2p85, ignored
Warning: redefinition of .subckt sky130_fd_pr__res_high_po_5p73, ignored

Circuit: * /home/shabbarvejlani/esim-workspace/epc/epc.cir

option SCALE: Scale is set to 1e-06 for instance and model parameters
Reducing trtol to 1 for xspice 'A' devices
Doing analysis at TEMP = 27.000000 and TNOM = 27.000000

Warning: include: has no value, DC 0 assumed
Warning: v2: no DC value, transient time 0 value used
=============dig_nand2 : New Iteration===========
Instance : 0

Inside foo before eval.....
A=0
B=0
O=0

Inside foo after eval.....
A=0
B=0
O=1
=============dig_nand2 : New Iteration===========
Instance : 1

Inside foo before eval.....
A=0
B=0
O=0

Inside foo after eval.....
A=0
B=0
O=1
=============dig_nand2 : New Iteration===========
Instance : 1

Inside foo before eval.....
A=0
B=0
O=1

Inside foo after eval.....
A=0
B=0
O=1
=============dig_nand2 : New Iteration===========
Instance : 0

Inside foo before eval.....
A=0
B=0
O=1

Inside foo after eval.....
A=0
B=0
O=1
=============dig_nand2 : New Iteration===========
Instance : 1

Inside foo before eval.....
A=0
B=0
O=1

Inside foo after eval.....
A=0
B=1
O=1
=============dig_nand2 : New Iteration===========
Instance : 0

Inside foo before eval.....
A=0
B=0
O=1

Inside foo after eval.....
A=1
B=0
O=1
=============dig_nand2 : New Iteration===========
Instance : 1

Inside foo before eval.....
A=0
B=1
O=1

Inside foo after eval.....
A=0
B=1
O=1
=============dig_nand2 : New Iteration===========
Instance : 0

Inside foo before eval.....
A=1
B=0
O=1

Inside foo after eval.....
A=1
B=0
O=1

No. of Data Rows : 100014
ERROR: (internal)  This operation is not defined for display type PrinterOnly.
Can't open viewport for graphics.
ERROR: (internal)  This operation is not defined for display type PrinterOnly.
Can't open viewport for graphics.
binary raw file "/home/shabbarvejlani/eSim-Workspace/epc/epc.raw"
Reducing trtol to 1 for xspice 'A' devices
Doing analysis at TEMP = 27.000000 and TNOM = 27.000000

Warning: include: has no value, DC 0 assumed
Warning: v2: no DC value, transient time 0 value used
No. of Data Columns : 135  
=============dig_nand2 : New Iteration===========
Instance : 2

Inside foo before eval.....
A=0
B=0
O=0

Inside foo after eval.....
A=0
B=0
O=1
=============dig_nand2 : New Iteration===========
Instance : 3

Inside foo before eval.....
A=0
B=0
O=0

Inside foo after eval.....
A=0
B=0
O=1
=============dig_nand2 : New Iteration===========
Instance : 3

Inside foo before eval.....
A=0
B=0
O=1

Inside foo after eval.....
A=0
B=0
O=1
=============dig_nand2 : New Iteration===========
Instance : 2

Inside foo before eval.....
A=0
B=0
O=1

Inside foo after eval.....
A=0
B=0
O=1
=============dig_nand2 : New Iteration===========
Instance : 3

Inside foo before eval.....
A=0
B=0
O=1

Inside foo after eval.....
A=1
B=0
O=1
=============dig_nand2 : New Iteration===========
Instance : 2

Inside foo before eval.....
A=0
B=0
O=1

Inside foo after eval.....
A=0
B=1
O=1
=============dig_nand2 : New Iteration===========
Instance : 2

Inside foo before eval.....
A=0
B=1
O=1

Inside foo after eval.....
A=0
B=0
O=1
=============dig_nand2 : New Iteration===========
Instance : 3

Inside foo before eval.....
A=1
B=0
O=1

Inside foo after eval.....
A=0
B=0
O=1
=============dig_nand2 : New Iteration===========
Instance : 3

Inside foo before eval.....
A=0
B=0
O=1

Inside foo after eval.....
A=0
B=1
O=1
=============dig_nand2 : New Iteration===========
Instance : 2

Inside foo before eval.....
A=0
B=0
O=1

Inside foo after eval.....
A=1
B=0
O=1
=============dig_nand2 : New Iteration===========
Instance : 3

Inside foo before eval.....
A=0
B=1
O=1

Inside foo after eval.....
A=0
B=1
O=1
=============dig_nand2 : New Iteration===========
Instance : 2

Inside foo before eval.....
A=1
B=0
O=1

Inside foo after eval.....
A=1
B=0
O=1

No. of Data Rows : 100017

Total analysis time (seconds) = 42.3732

Total CPU time (seconds) = 68.429 

Total DRAM available = 257855.305 MB.
DRAM currently available = 224561.789 MB.
Maximum ngspice program size =  393.793 MB.
Current ngspice program size =  331.258 MB.

Shared ngspice pages =    9.473 MB.
Text (code) pages =    6.285 MB.
Stack = 0 bytes.
Library pages =  322.438 MB.

